Circuit: * Z:\home\armin\Masterarbeit\Teil_B\HDMI_RGB_Bridge\Simulation\LTSpice\Verpolschutz_DC_12V.asc

Direct Newton iteration for .op point succeeded.

Date: Thu Aug 21 16:45:05 2014
Total elapsed time: 0.093 seconds.

tnom = 27
temp = 27
method = modified trap
totiter = 3574
traniter = 3570
tranpoints = 1430
accept = 1328
rejected = 102
matrix size = 8
fillins = 0
solver = Normal
Matrix Compiler1: 398 bytes object code size  0.5/0.5/[0.5]
Matrix Compiler2: 608 bytes object code size  0.5/0.5/[0.5]


