Circuit: * Z:\home\armin\Masterarbeit\Teil_B\HDMI_RGB_Bridge\Simulation\LTSpice\Verpolschutz_DC_12V.asc

Direct Newton iteration for .op point succeeded.

Date: Mon Apr 28 11:52:04 2014
Total elapsed time: 0.048 seconds.

tnom = 27
temp = 27
method = modified trap
totiter = 5040
traniter = 5036
tranpoints = 1856
accept = 1658
rejected = 198
matrix size = 8
fillins = 0
solver = Normal
Matrix Compiler1: 398 bytes object code size  0.4/0.4/[0.4]
Matrix Compiler2: 608 bytes object code size  0.4/0.4/[0.4]


