Circuit: * Z:\home\armin\Masterarbeit\Teil_B\HDMI_RGB_Bridge\Simulation\LTSpice\Verpolschutz_DC_12V.asc

Direct Newton iteration for .op point succeeded.

Date: Tue Sep 09 16:10:29 2014
Total elapsed time: 0.082 seconds.

tnom = 27
temp = 27
method = modified trap
totiter = 3502
traniter = 3498
tranpoints = 1416
accept = 1312
rejected = 104
matrix size = 8
fillins = 0
solver = Normal
Matrix Compiler1:      23 opcodes  0.4/[0.4]/0.4
Matrix Compiler2: 608 bytes object code size  0.3/0.4/[0.4]


