Circuit: * H:\Masterarbeit\Teil_B\HDMI_RGB_Bridge\Simulation\LTSpice\Verpolschutz_Sinus_12V.asc

Direct Newton iteration for .op point succeeded.

Date: Mon Apr 28 11:50:32 2014
Total elapsed time: 0.052 seconds.

tnom = 27
temp = 27
method = modified trap
totiter = 3176
traniter = 3172
tranpoints = 1186
accept = 1139
rejected = 47
matrix size = 8
fillins = 0
solver = Normal
Matrix Compiler1: 398 bytes object code size  0.4/0.4/[0.3]
Matrix Compiler2: 608 bytes object code size  0.4/0.4/[0.4]


