Circuit: * H:\Masterarbeit\Teil_B\HDMI_RGB_Bridge\Simulation\tiefpass_rgb.asc

.OP point found by inspection.

Date: Thu Aug 21 13:50:17 2014
Total elapsed time: 0.120 seconds.

tnom = 27
temp = 27
method = modified trap
totiter = 2262
traniter = 2262
tranpoints = 1132
accept = 1112
rejected = 20
matrix size = 3
fillins = 0
solver = Normal
Matrix Compiler1: 50 bytes object code size  0.3/0.3/[0.3]
Matrix Compiler2: 175 bytes object code size  0.3/0.3/[0.3]


