Circuit: * Z:\home\armin\Masterarbeit\HDMI_RGB_Bridge\Simulation\LTSpice\Verpolschutz_DC_12V.asc

.OP point found by inspection.

Date: Wed Apr 02 09:50:54 2014
Total elapsed time: 0.133 seconds.

tnom = 27
temp = 27
method = modified trap
totiter = 5126
traniter = 5126
tranpoints = 1942
accept = 1801
rejected = 141
matrix size = 8
fillins = 0
solver = Normal
Matrix Compiler1: 416 bytes object code size  1.8/1.7/[1.6]
Matrix Compiler2: 602 bytes object code size  1.6/1.7/[1.6]


